Version 4
SHEET 1 880 680
WIRE -256 -16 -256 -32
WIRE 48 48 16 48
WIRE 208 48 128 48
WIRE -256 80 -256 64
WIRE -176 80 -256 80
WIRE -256 96 -256 80
WIRE -176 96 -176 80
WIRE 112 192 112 160
WIRE -96 208 -176 208
WIRE 16 208 16 48
WIRE 16 208 -16 208
WIRE 80 208 16 208
WIRE -256 224 -256 176
WIRE 208 224 208 48
WIRE 208 224 144 224
WIRE 80 240 48 240
WIRE -176 256 -176 208
WIRE 48 272 48 240
WIRE 112 320 112 256
WIRE -176 368 -176 336
FLAG 112 160 +VCC
FLAG 112 320 -VCC
FLAG 48 272 0
FLAG -176 368 0
FLAG -176 96 0
FLAG -256 -32 +VCC
FLAG -256 224 -VCC
SYMBOL Opamps\\opamp2 112 160 R0
SYMATTR InstName U1
SYMATTR Value LM741/NS
SYMBOL Misc\\signal -176 240 R0
WINDOW 123 0 0 Left 2
WINDOW 39 0 0 Left 2
SYMATTR InstName V1
SYMBOL res 0 192 R90
WINDOW 0 0 56 VBottom 2
WINDOW 3 32 56 VTop 2
SYMATTR InstName R1
SYMATTR Value 1k
SYMBOL res 32 64 R270
WINDOW 0 32 56 VTop 2
WINDOW 3 0 56 VBottom 2
SYMATTR InstName R2
SYMATTR Value 2k
SYMBOL Misc\\battery -256 -32 R0
WINDOW 123 0 0 Left 2
WINDOW 39 0 0 Left 2
SYMATTR InstName V2
SYMATTR Value 12
SYMBOL Misc\\battery -256 80 R0
WINDOW 123 0 0 Left 2
WINDOW 39 0 0 Left 2
SYMATTR InstName V3
SYMATTR Value 12
TEXT 176 16 Left 2 !.inc "C:\\Users\\joa-m\\Desktop\\snom211\\LM741.mod"
TEXT -290 426 Left 2 !.tran 0 100m 0 1m
