Version 4
SHEET 1 1248 680
WIRE 576 240 464 240
WIRE 688 240 656 240
WIRE 512 320 512 208
WIRE 368 336 160 336
WIRE 464 336 464 240
WIRE 464 336 448 336
WIRE 480 336 464 336
WIRE 688 352 688 240
WIRE 688 352 544 352
WIRE 704 352 688 352
WIRE 480 368 448 368
WIRE 448 400 448 368
WIRE 448 400 368 400
WIRE 160 416 160 336
WIRE 368 432 368 400
WIRE 512 432 512 384
FLAG 512 512 0
FLAG 512 128 0
FLAG 368 432 0
FLAG 160 496 0
FLAG 704 352 VOUTPUT
FLAG 160 336 VINPUT
SYMBOL Misc\\battery 512 528 R180
WINDOW 0 24 104 Left 2
WINDOW 3 24 16 Left 2
WINDOW 123 0 0 Left 2
WINDOW 39 0 0 Left 2
SYMATTR InstName V1
SYMATTR Value 15
SYMBOL Misc\\battery 512 224 R180
WINDOW 0 24 104 Left 2
WINDOW 3 24 16 Left 2
WINDOW 123 0 0 Left 2
WINDOW 39 0 0 Left 2
SYMATTR InstName V2
SYMATTR Value 15
SYMBOL Misc\\signal 160 400 R0
WINDOW 123 24 132 Left 2
WINDOW 39 0 0 Left 2
SYMATTR InstName V3
SYMATTR Value2 AC 1
SYMBOL Opamps\\UniversalOpamp2 512 352 R0
SYMATTR InstName U1
SYMATTR Value2 Avol=0.2Meg GBW=3Meg Slew=13Meg
SYMBOL res 464 320 R90
WINDOW 0 0 56 VBottom 2
WINDOW 3 32 56 VTop 2
SYMATTR InstName R1
SYMATTR Value 10k
TEXT 102 552 Left 2 !;tran 1
TEXT 304 592 Left 2 !.ac dec 100 1 100000000
