Version 4
SHEET 1 1376 872
WIRE 656 112 448 112
WIRE 512 176 512 80
WIRE 448 192 448 112
WIRE 480 192 448 192
WIRE 656 208 656 112
WIRE 656 208 544 208
WIRE 752 208 656 208
WIRE 864 208 832 208
WIRE 960 208 864 208
WIRE 1072 208 1040 208
WIRE 480 224 224 224
WIRE 512 304 512 240
WIRE 656 304 656 288
WIRE 976 368 976 320
WIRE 864 384 864 208
WIRE 944 384 864 384
WIRE 464 400 256 400
WIRE 656 400 656 384
WIRE 656 400 544 400
WIRE 1072 400 1072 208
WIRE 1072 400 1008 400
WIRE 1120 400 1072 400
WIRE 656 416 656 400
WIRE 944 416 864 416
WIRE 976 496 976 432
WIRE 656 512 656 496
WIRE 656 512 432 512
WIRE 656 528 656 512
WIRE 512 608 512 560
WIRE 432 624 432 512
WIRE 480 624 432 624
WIRE 1136 624 1136 560
WIRE 656 640 656 608
WIRE 656 640 544 640
WIRE 752 640 656 640
WIRE 864 640 864 416
WIRE 864 640 832 640
WIRE 928 640 864 640
WIRE 1056 640 1008 640
WIRE 1072 640 1072 576
WIRE 1104 640 1072 640
WIRE 480 656 224 656
WIRE 1280 656 1168 656
WIRE 1056 672 1056 640
WIRE 1104 672 1056 672
WIRE 512 736 512 672
WIRE 1136 768 1136 688
FLAG 224 224 V1
FLAG 224 656 V2
FLAG 512 80 +VCC
FLAG 512 304 -VCC
FLAG 512 560 +VCC
FLAG 512 736 -VCC
FLAG 976 320 +VCC
FLAG 976 496 -VCC
FLAG 1120 400 VOUT
FLAG 1072 576 0
FLAG 1136 560 +VCC
FLAG 1136 768 -VCC
FLAG 1280 656 VFEED
FLAG 256 400 VFEED
SYMBOL Opamps\\opamp2 512 144 R0
SYMATTR InstName U1
SYMATTR SpiceModel TL082
SYMBOL res 640 192 R0
SYMATTR InstName R1
SYMBOL res 640 288 R0
SYMATTR InstName R2
SYMBOL Opamps\\opamp2 512 576 R0
SYMATTR InstName U2
SYMATTR SpiceModel TL082
SYMBOL res 640 400 R0
SYMATTR InstName R3
SYMBOL res 640 512 R0
SYMATTR InstName R4
SYMBOL res 560 384 R90
WINDOW 0 0 56 VBottom 2
WINDOW 3 32 56 VTop 2
SYMATTR InstName R5
SYMBOL Opamps\\opamp2 976 336 R0
SYMATTR InstName U3
SYMATTR SpiceModel TL082
SYMBOL res 848 624 R90
WINDOW 0 0 56 VBottom 2
WINDOW 3 32 56 VTop 2
SYMATTR InstName R6
SYMBOL res 848 192 R90
WINDOW 0 0 56 VBottom 2
WINDOW 3 32 56 VTop 2
SYMATTR InstName R7
SYMBOL res 1056 192 R90
WINDOW 0 0 56 VBottom 2
WINDOW 3 32 56 VTop 2
SYMATTR InstName R8
SYMBOL res 1024 624 R90
WINDOW 0 0 56 VBottom 2
WINDOW 3 32 56 VTop 2
SYMATTR InstName R9
SYMBOL Opamps\\opamp2 1136 592 R0
SYMATTR InstName U4
