Version 4
SHEET 1 880 680
WIRE 528 16 464 16
WIRE 464 32 464 16
WIRE 464 32 352 32
WIRE 352 48 352 32
WIRE 464 48 464 32
WIRE 112 64 80 64
WIRE 528 64 528 16
WIRE -640 80 -640 -96
WIRE 112 96 112 64
WIRE 352 144 352 112
WIRE 352 144 240 144
WIRE 464 144 464 128
WIRE 464 144 352 144
WIRE 160 160 0 160
WIRE 560 176 240 176
WIRE -96 192 -224 192
WIRE 0 192 0 160
WIRE 0 192 -16 192
WIRE 160 192 96 192
WIRE 560 192 560 176
WIRE 560 192 544 192
WIRE 640 192 560 192
WIRE 0 208 0 192
WIRE 352 208 240 208
WIRE 560 224 560 192
WIRE 640 224 640 192
WIRE 640 304 640 288
WIRE 640 304 560 304
WIRE 0 320 0 288
WIRE 96 320 96 192
WIRE 96 320 80 320
WIRE 160 320 96 320
WIRE 176 320 160 320
WIRE 352 320 352 208
WIRE 352 320 240 320
WIRE 560 320 560 304
WIRE 352 336 352 320
WIRE -640 368 -640 160
FLAG 112 96 0
FLAG -224 192 INPUT
FLAG 560 320 0
FLAG 528 64 0
FLAG 352 208 OUTPUT
FLAG -640 -96 INPUT
FLAG -640 368 0
FLAG 0 320 0
FLAG 352 416 0
SYMBOL voltage 464 144 R180
WINDOW 0 24 96 Left 2
WINDOW 3 24 16 Left 2
WINDOW 123 0 0 Left 2
WINDOW 39 0 0 Left 2
SYMATTR InstName V2
SYMATTR Value 15
SYMBOL voltage 560 320 R180
WINDOW 0 24 96 Left 2
WINDOW 3 24 16 Left 2
WINDOW 123 0 0 Left 2
WINDOW 39 0 0 Left 2
SYMATTR InstName V1
SYMATTR Value 15
SYMBOL Misc\\signal -640 64 R0
WINDOW 123 24 188 Left 2
WINDOW 39 0 0 Left 2
WINDOW 3 24 160 Left 2
SYMATTR Value2 AC 1
SYMATTR Value SINE(0 1 20k 0 0 0 10000)
SYMATTR InstName V3
SYMBOL AutoGenerated\\LM324_NS 192 176 R0
SYMATTR InstName U3
SYMBOL res 96 304 R90
WINDOW 0 0 56 VBottom 2
WINDOW 3 32 56 VTop 2
SYMATTR InstName R1
SYMATTR Value 12k
SYMBOL res 256 304 R90
WINDOW 0 0 56 VBottom 2
WINDOW 3 32 56 VTop 2
SYMATTR InstName R2
SYMATTR Value 1.2k
SYMBOL res 0 176 R90
WINDOW 0 0 56 VBottom 2
WINDOW 3 32 56 VTop 2
SYMATTR InstName R3
SYMATTR Value 12k
SYMBOL res 16 304 R180
WINDOW 0 36 76 Left 2
WINDOW 3 36 40 Left 2
SYMATTR InstName R4
SYMATTR Value 49.9k
SYMBOL res 336 320 R0
SYMATTR InstName R5
SYMATTR Value 49.9k
SYMBOL cap 624 224 R0
SYMATTR InstName C
SYMATTR Value 100p
SYMBOL cap 336 48 R0
SYMATTR InstName C2
SYMATTR Value 100p
TEXT -416 424 Left 2 !.ac dec 1000 50000 1000000
