Version 4
SHEET 1 1368 740
WIRE 112 48 -32 48
WIRE 240 48 192 48
WIRE 272 48 240 48
WIRE 400 48 352 48
WIRE 704 64 672 64
WIRE 848 64 784 64
WIRE 240 160 240 48
WIRE 272 160 240 160
WIRE 400 176 400 48
WIRE 400 176 336 176
WIRE 496 176 400 176
WIRE 672 176 672 64
WIRE 672 176 576 176
WIRE 720 176 672 176
WIRE -272 192 -272 160
WIRE -272 192 -352 192
WIRE 272 192 96 192
WIRE 848 192 848 64
WIRE 848 192 784 192
WIRE 720 208 672 208
WIRE -352 224 -352 192
WIRE -272 224 -272 192
WIRE -32 224 -32 48
WIRE 96 240 96 192
WIRE 672 272 672 208
WIRE -32 352 -32 304
WIRE 96 352 96 320
FLAG -352 224 0
FLAG -272 80 +12
FLAG 304 144 +12
FLAG -272 304 -12
FLAG 304 208 -12
FLAG -32 352 0
FLAG 752 160 +12
FLAG 752 224 -12
FLAG 848 64 Vo
FLAG 96 352 0
FLAG 672 272 0
SYMBOL Opamps\\opamp2 304 112 R0
SYMATTR InstName U1
SYMATTR Value TL082
SYMBOL voltage -272 208 R0
WINDOW 123 0 0 Left 2
WINDOW 39 0 0 Left 2
SYMATTR InstName V1
SYMATTR Value 12
SYMBOL voltage -272 64 R0
WINDOW 123 0 0 Left 2
WINDOW 39 0 0 Left 2
SYMATTR InstName V2
SYMATTR Value 12
SYMBOL Misc\\signal -32 208 R0
WINDOW 123 0 0 Left 2
WINDOW 39 0 0 Left 2
SYMATTR InstName Vi
SYMATTR Value ""
SYMBOL res 368 32 R90
WINDOW 0 0 56 VBottom 2
WINDOW 3 32 56 VTop 2
SYMATTR InstName R1
SYMATTR Value {mc(10k,tol)}
SYMBOL Opamps\\opamp2 752 128 R0
SYMATTR InstName U3
SYMATTR Value TL082
SYMBOL res 800 48 R90
WINDOW 0 0 56 VBottom 2
WINDOW 3 32 56 VTop 2
SYMATTR InstName R7
SYMATTR Value {mc(5k,tol)}
SYMBOL res 208 32 R90
WINDOW 0 0 56 VBottom 2
WINDOW 3 32 56 VTop 2
SYMATTR InstName R2
SYMATTR Value {mc(1k,tol)}
SYMBOL res 592 160 R90
WINDOW 0 0 56 VBottom 2
WINDOW 3 32 56 VTop 2
SYMATTR InstName R3
SYMATTR Value {mc(1k,tol)}
SYMBOL voltage 96 224 R0
WINDOW 123 0 0 Left 2
WINDOW 39 0 0 Left 2
SYMATTR InstName V3
SYMATTR Value 0.318
TEXT -112 400 Left 2 !.dc Vi 0.35 0.45 0.001
TEXT -112 424 Left 2 !.include TL082.sub
TEXT -112 448 Left 2 !.param tol=0.05
TEXT -112 472 Left 2 !.step param run 0 30 1
