Version 4
SHEET 1 1368 740
WIRE 0 48 -32 48
WIRE 112 48 80 48
WIRE 240 48 192 48
WIRE 272 48 240 48
WIRE 400 48 352 48
WIRE 480 80 432 80
WIRE 592 80 560 80
WIRE 656 80 592 80
WIRE 784 80 736 80
WIRE 1136 80 1104 80
WIRE 1280 80 1216 80
WIRE 432 112 432 80
WIRE 240 160 240 48
WIRE 272 160 240 160
WIRE 400 176 400 48
WIRE 400 176 336 176
WIRE 480 176 400 176
WIRE 592 176 592 80
WIRE 624 176 592 176
WIRE -272 192 -272 160
WIRE -272 192 -352 192
WIRE 784 192 784 80
WIRE 784 192 688 192
WIRE 832 192 784 192
WIRE 992 192 912 192
WIRE 1104 192 1104 80
WIRE 1104 192 1072 192
WIRE 1152 192 1104 192
WIRE 480 208 480 176
WIRE 624 208 480 208
WIRE 1280 208 1280 80
WIRE 1280 208 1216 208
WIRE -352 224 -352 192
WIRE -272 224 -272 192
WIRE -32 224 -32 48
WIRE -32 352 -32 304
WIRE 256 352 224 352
WIRE 464 352 336 352
WIRE 608 352 544 352
WIRE 944 368 896 368
WIRE 1104 368 1024 368
WIRE 1216 368 1184 368
WIRE 608 384 608 352
WIRE 1216 384 1216 368
WIRE 608 480 608 464
WIRE 1216 512 1216 464
WIRE 208 688 208 656
FLAG -352 224 0
FLAG -272 80 +12
FLAG 304 144 +12
FLAG -272 304 -12
FLAG 304 208 -12
FLAG -32 352 0
FLAG 656 160 +12
FLAG 656 224 -12
FLAG 1184 176 +12
FLAG 1184 240 -12
FLAG 1280 80 Vo
FLAG 1216 512 0
FLAG 896 368 +12
FLAG 1216 368 Vb
FLAG 1152 224 Vb
FLAG 272 192 Va
FLAG 608 480 0
FLAG 224 352 +12
FLAG 432 112 0
FLAG 608 352 Va
FLAG 208 688 0
SYMBOL Opamps\\opamp2 304 112 R0
SYMATTR InstName U1
SYMATTR Value TL082
SYMBOL voltage -272 208 R0
WINDOW 123 0 0 Left 2
WINDOW 39 0 0 Left 2
SYMATTR InstName V1
SYMATTR Value 12
SYMBOL voltage -272 64 R0
WINDOW 123 0 0 Left 2
WINDOW 39 0 0 Left 2
SYMATTR InstName V2
SYMATTR Value 12
SYMBOL Misc\\signal -32 208 R0
WINDOW 123 0 0 Left 2
WINDOW 39 0 0 Left 2
SYMATTR InstName Vi
SYMATTR Value ""
SYMBOL res 368 32 R90
WINDOW 0 0 56 VBottom 2
WINDOW 3 32 56 VTop 2
SYMATTR InstName R1
SYMATTR Value 33k
SYMBOL Opamps\\opamp2 656 128 R0
SYMATTR InstName U2
SYMATTR Value TL082
SYMBOL res 576 64 R90
WINDOW 0 0 56 VBottom 2
WINDOW 3 32 56 VTop 2
SYMATTR InstName R4
SYMATTR Value {mc(2.7k,tol)}
SYMBOL res 752 64 R90
WINDOW 0 0 56 VBottom 2
WINDOW 3 32 56 VTop 2
SYMATTR InstName R5
SYMATTR Value {mc(180k,tol)}
SYMBOL Opamps\\opamp2 1184 144 R0
SYMATTR InstName U3
SYMATTR Value TL082
SYMBOL res 928 176 R90
WINDOW 0 0 56 VBottom 2
WINDOW 3 32 56 VTop 2
SYMATTR InstName R6
SYMATTR Value {mc(2.2k,tol)}
SYMBOL res 1232 64 R90
WINDOW 0 0 56 VBottom 2
WINDOW 3 32 56 VTop 2
SYMATTR InstName R7
SYMATTR Value {mc(1k,tol)}
SYMBOL res 1200 368 R0
SYMATTR InstName R8
SYMATTR Value 1.2k
SYMBOL res 1200 352 R90
WINDOW 0 0 56 VBottom 2
WINDOW 3 32 56 VTop 2
SYMATTR InstName R9
SYMATTR Value 3.3k
SYMBOL res 1040 352 R90
WINDOW 0 0 56 VBottom 2
WINDOW 3 32 56 VTop 2
SYMATTR InstName R10
SYMATTR Value 2.7k
SYMBOL res 208 32 R90
WINDOW 0 0 56 VBottom 2
WINDOW 3 32 56 VTop 2
SYMATTR InstName R2
SYMATTR Value {mc(1k,tol)}
SYMBOL res 592 368 R0
SYMATTR InstName R12
SYMATTR Value 1k
SYMBOL res 352 336 R90
WINDOW 0 0 56 VBottom 2
WINDOW 3 32 56 VTop 2
SYMATTR InstName R13
SYMATTR Value 39k
SYMBOL res 1088 176 R90
WINDOW 0 0 56 VBottom 2
WINDOW 3 32 56 VTop 2
SYMATTR InstName R3
SYMATTR Value {mc(1.8k,tol)}
SYMBOL res 560 336 R90
WINDOW 0 0 56 VBottom 2
WINDOW 3 32 56 VTop 2
SYMATTR InstName R11
SYMATTR Value 0.001
SYMBOL res 96 32 R90
WINDOW 0 0 56 VBottom 2
WINDOW 3 32 56 VTop 2
SYMATTR InstName R16
SYMATTR Value {mc(10k,tol)}
SYMBOL voltage 208 560 R0
WINDOW 123 0 0 Left 2
WINDOW 39 0 0 Left 2
SYMATTR InstName V3
SYMATTR Value 0.4
TEXT -112 400 Left 2 !.dc Vi 0.35 0.45 0.001
TEXT -112 424 Left 2 !.include TL082.sub
TEXT -112 448 Left 2 !.param tol=0
TEXT -112 472 Left 2 !.step param run 0 20 1
TEXT 456 296 Left 2 ;Preset 5k - Offset
