Version 4
SHEET 1 2288 680
WIRE 1232 -96 1120 -96
WIRE 1344 -96 1232 -96
WIRE 544 -64 240 -64
WIRE 736 -64 624 -64
WIRE 944 -64 736 -64
WIRE 80 -16 16 -16
WIRE 240 -16 240 -64
WIRE 240 -16 144 -16
WIRE 1648 -16 1568 -16
WIRE 1808 -16 1728 -16
WIRE 736 0 736 -64
WIRE 1120 32 1120 -96
WIRE 1344 32 1344 -96
WIRE -96 96 -144 96
WIRE 16 96 16 -16
WIRE 16 96 -16 96
WIRE 48 96 16 96
WIRE 240 112 240 -16
WIRE 240 112 112 112
WIRE 736 112 736 80
WIRE 1568 112 1568 -16
WIRE 1568 112 1392 112
WIRE 1632 112 1568 112
WIRE 48 128 16 128
WIRE 1344 128 1344 112
WIRE 1392 128 1392 112
WIRE 1392 128 1344 128
WIRE 1808 128 1808 -16
WIRE 1808 128 1696 128
WIRE -144 144 -144 96
WIRE -144 144 -240 144
WIRE 1632 144 1584 144
WIRE 240 160 240 112
WIRE 320 160 240 160
WIRE 1120 160 1120 112
WIRE 1584 160 1584 144
WIRE 1584 160 1120 160
WIRE -144 176 -144 144
WIRE -96 176 -144 176
WIRE 16 176 16 128
WIRE 16 176 -16 176
WIRE 448 176 384 176
WIRE -240 192 -240 144
WIRE 320 192 304 192
WIRE 1584 192 1584 160
WIRE 16 208 16 176
WIRE 1120 224 1120 160
WIRE 1344 224 1344 128
WIRE -512 272 -512 256
WIRE -432 272 -512 272
WIRE 944 272 944 -64
WIRE 1056 272 944 272
WIRE 1440 272 1408 272
WIRE -512 304 -512 272
WIRE -432 304 -432 272
WIRE -240 304 -240 272
WIRE 16 304 16 288
WIRE 192 304 160 304
WIRE 304 304 304 192
WIRE 304 304 272 304
WIRE 336 304 304 304
WIRE 448 304 448 176
WIRE 448 304 416 304
WIRE 1200 320 1152 320
WIRE 1328 320 1280 320
WIRE 160 336 160 304
WIRE 1440 336 1440 272
WIRE 1120 368 1120 320
WIRE 1152 368 1152 320
WIRE 1152 368 1120 368
WIRE 1232 368 1152 368
WIRE 1328 368 1328 320
WIRE 1328 368 1232 368
WIRE 1344 368 1344 320
WIRE 1344 368 1328 368
WIRE 1232 432 1232 368
WIRE -96 496 -96 480
WIRE 80 544 -32 544
WIRE 448 544 448 304
WIRE 448 544 160 544
WIRE 1232 560 1232 512
WIRE -96 624 -96 592
FLAG -432 304 0
FLAG -512 176 +12V
FLAG 352 144 +12V
FLAG 80 80 +12V
FLAG -512 384 -12V
FLAG 352 208 -12V
FLAG 80 144 -12V
FLAG 160 336 0
FLAG 16 304 0
FLAG -240 304 0
FLAG -96 624 0
FLAG 16 -16 VColector
FLAG -96 400 VColector
FLAG 1232 -96 +12V
FLAG 1232 560 -12V
FLAG 1440 336 0
FLAG 736 112 0
FLAG 1664 160 -12V
FLAG 1664 96 +12V
FLAG 1584 272 0
SYMBOL Opamps\\opamp2 80 48 R0
SYMATTR InstName U1
SYMATTR Value TL082
SYMBOL Opamps\\opamp2 352 112 R0
SYMATTR InstName U2
SYMATTR Value TL082
SYMBOL voltage -512 160 R0
WINDOW 123 0 0 Left 2
WINDOW 39 0 0 Left 2
SYMATTR InstName V1
SYMATTR Value 12
SYMBOL voltage -512 288 R0
WINDOW 123 0 0 Left 2
WINDOW 39 0 0 Left 2
SYMATTR InstName V2
SYMATTR Value 12
SYMBOL cap 144 -32 R90
WINDOW 0 0 32 VBottom 2
WINDOW 3 32 32 VTop 2
SYMATTR InstName C1
SYMATTR Value 10n
SYMBOL res 432 288 R90
WINDOW 0 0 56 VBottom 2
WINDOW 3 32 56 VTop 2
SYMATTR InstName R1
SYMATTR Value 1.2k
SYMBOL res 288 288 R90
WINDOW 0 0 56 VBottom 2
WINDOW 3 32 56 VTop 2
SYMATTR InstName R2
SYMATTR Value 1k
SYMBOL res 0 80 R90
WINDOW 0 0 56 VBottom 2
WINDOW 3 32 56 VTop 2
SYMATTR InstName R3
SYMATTR Value 1k
SYMBOL res 0 160 R90
WINDOW 0 0 56 VBottom 2
WINDOW 3 32 56 VTop 2
SYMATTR InstName R4
SYMATTR Value 1k
SYMBOL res 32 304 R180
WINDOW 0 36 76 Left 2
WINDOW 3 36 40 Left 2
SYMATTR InstName R5
SYMATTR Value 1k
SYMBOL voltage -240 176 R0
WINDOW 3 24 44 Left 2
WINDOW 123 0 0 Left 2
WINDOW 39 0 0 Left 2
SYMATTR Value 0.4
SYMATTR InstName V3
SYMBOL npn -32 496 M0
SYMATTR InstName Q1
SYMATTR Value BC547B
SYMBOL res 176 528 R90
WINDOW 0 0 56 VBottom 2
WINDOW 3 32 56 VTop 2
SYMATTR InstName R6
SYMATTR Value 2k
SYMBOL res -112 384 R0
SYMATTR InstName R7
SYMATTR Value 490
SYMBOL npn 1056 224 R0
SYMATTR InstName Q2
SYMATTR Value BC337-25
SYMBOL npn 1408 224 M0
SYMATTR InstName Q3
SYMATTR Value BC337-25
SYMBOL res 1216 416 R0
SYMATTR InstName R8
SYMATTR Value 5.6k
SYMBOL res 1104 16 R0
SYMATTR InstName R9
SYMATTR Value 1k
SYMBOL res 1328 16 R0
SYMATTR InstName R10
SYMATTR Value 1k
SYMBOL res 640 -80 R90
WINDOW 0 0 56 VBottom 2
WINDOW 3 32 56 VTop 2
SYMATTR InstName R11
SYMATTR Value 44k
SYMBOL res 752 96 R180
WINDOW 0 36 76 Left 2
WINDOW 3 36 40 Left 2
SYMATTR InstName R12
SYMATTR Value 1k
SYMBOL Opamps\\opamp2 1664 64 R0
SYMATTR InstName U3
SYMATTR Value TL082
SYMBOL res 1744 -32 R90
WINDOW 0 0 56 VBottom 2
WINDOW 3 32 56 VTop 2
SYMATTR InstName R13
SYMATTR Value 2.6k
SYMBOL res 1568 176 R0
SYMATTR InstName R14
SYMATTR Value 2.6k
SYMBOL res 1296 304 R90
WINDOW 0 0 56 VBottom 2
WINDOW 3 32 56 VTop 2
SYMATTR InstName R15
SYMATTR Value 68
TEXT -560 64 Left 2 !.include TL082.sub
TEXT -560 24 Left 2 !.tran 0 3m 1.037m 10u
