Version 4
SHEET 1 5208 1092
WIRE 48 48 16 48
WIRE 144 48 112 48
WIRE 288 48 144 48
WIRE 672 48 640 48
WIRE 768 48 736 48
WIRE 912 48 768 48
WIRE 1472 48 1328 48
WIRE 1760 48 1552 48
WIRE 144 64 144 48
WIRE 768 64 768 48
WIRE 2064 80 1888 80
WIRE 2336 80 2192 80
WIRE 2624 80 2416 80
WIRE 2944 80 2768 80
WIRE 3232 80 3088 80
WIRE 3520 80 3312 80
WIRE 496 96 368 96
WIRE 1120 96 976 96
WIRE 4640 112 4480 112
WIRE 4656 112 4640 112
WIRE 1120 144 1120 96
WIRE 1232 144 1120 144
WIRE 1328 144 1328 48
WIRE 1328 144 1296 144
WIRE 1360 144 1328 144
WIRE 1472 144 1424 144
WIRE 1600 144 1472 144
WIRE 368 160 368 96
WIRE 400 160 368 160
WIRE 976 160 976 96
WIRE 1024 160 976 160
WIRE 1760 160 1760 48
WIRE 1760 160 1664 160
WIRE 1888 160 1888 80
WIRE 1952 160 1888 160
WIRE 2768 160 2768 80
WIRE 2832 160 2768 160
WIRE 3728 160 3584 160
WIRE 4000 160 3856 160
WIRE 4288 160 4080 160
WIRE -80 176 -224 176
WIRE 0 176 -16 176
WIRE 16 176 16 48
WIRE 16 176 0 176
WIRE 48 176 16 176
WIRE 144 176 144 144
WIRE 144 176 112 176
WIRE 176 176 144 176
WIRE 496 176 496 96
WIRE 496 176 464 176
WIRE 544 176 496 176
WIRE 624 176 608 176
WIRE 640 176 640 48
WIRE 640 176 624 176
WIRE 672 176 640 176
WIRE 768 176 768 144
WIRE 768 176 736 176
WIRE 800 176 768 176
WIRE 1120 176 1120 144
WIRE 1120 176 1088 176
WIRE 1600 176 1584 176
WIRE 2064 176 2064 80
WIRE 2064 176 2016 176
WIRE 2096 176 2064 176
WIRE 2192 176 2192 80
WIRE 2192 176 2160 176
WIRE 2224 176 2192 176
WIRE 2336 176 2288 176
WIRE 2464 176 2336 176
WIRE 2944 176 2944 80
WIRE 2944 176 2896 176
WIRE 2992 176 2944 176
WIRE 3088 176 3088 80
WIRE 3088 176 3056 176
WIRE 3120 176 3088 176
WIRE 3232 176 3184 176
WIRE 3360 176 3232 176
WIRE 288 192 288 48
WIRE 288 192 240 192
WIRE 400 192 288 192
WIRE 912 192 912 48
WIRE 912 192 864 192
WIRE 1024 192 912 192
WIRE 1760 192 1760 160
WIRE 1952 192 1760 192
WIRE 2624 192 2624 80
WIRE 2624 192 2528 192
WIRE 2832 192 2656 192
WIRE 3520 192 3520 80
WIRE 3520 192 3424 192
WIRE 4480 192 4480 112
WIRE 4528 192 4480 192
WIRE 176 208 160 208
WIRE 800 208 784 208
WIRE 1472 208 1472 144
WIRE 2464 208 2448 208
WIRE 3360 208 3344 208
WIRE 4656 208 4656 112
WIRE 4656 208 4592 208
WIRE -224 224 -224 176
WIRE 0 224 0 176
WIRE 624 224 624 176
WIRE 4528 224 4496 224
WIRE 2336 240 2336 176
WIRE 2624 240 2624 192
WIRE 2656 240 2656 192
WIRE 2656 240 2624 240
WIRE 3232 240 3232 176
WIRE 3584 240 3584 160
WIRE 3632 240 3584 240
WIRE 4288 240 4288 160
WIRE 4368 240 4288 240
WIRE 4496 240 4496 224
WIRE 4496 240 4448 240
WIRE 160 256 160 208
WIRE 784 256 784 208
WIRE 1584 256 1584 176
WIRE 1600 256 1584 256
WIRE 1760 256 1760 192
WIRE 1760 256 1680 256
WIRE 3728 256 3728 160
WIRE 3728 256 3696 256
WIRE 3760 256 3728 256
WIRE 3856 256 3856 160
WIRE 3856 256 3824 256
WIRE 3888 256 3856 256
WIRE 4000 256 3952 256
WIRE 4128 256 4000 256
WIRE 3520 272 3520 192
WIRE 3632 272 3520 272
WIRE 4288 272 4288 240
WIRE 4288 272 4192 272
WIRE 2448 288 2448 208
WIRE 2464 288 2448 288
WIRE 2624 288 2624 240
WIRE 2624 288 2544 288
WIRE 3344 288 3344 208
WIRE 3360 288 3344 288
WIRE 3520 288 3520 272
WIRE 3520 288 3440 288
WIRE 4128 288 4112 288
WIRE 4496 288 4496 240
WIRE 1584 304 1584 256
WIRE 4000 320 4000 256
WIRE 0 336 0 304
WIRE 624 336 624 304
WIRE 2448 336 2448 288
WIRE 3344 336 3344 288
WIRE 4112 368 4112 288
WIRE 4128 368 4112 368
WIRE 4288 368 4288 272
WIRE 4288 368 4208 368
WIRE -224 384 -224 304
WIRE 4112 416 4112 368
WIRE 4496 416 4496 368
WIRE 1472 432 1472 288
WIRE 1584 432 1584 384
WIRE 2336 464 2336 320
WIRE 2448 464 2448 416
WIRE 3232 464 3232 320
WIRE 3344 464 3344 416
WIRE 4000 544 4000 400
WIRE 4112 544 4112 496
FLAG 1472 432 0
FLAG 1584 432 0
FLAG 2336 464 0
FLAG 2448 464 0
FLAG 3232 464 0
FLAG 3344 464 0
FLAG 0 336 0
FLAG 160 256 0
FLAG 624 336 0
FLAG 784 256 0
FLAG -224 176 VI
FLAG 4000 544 0
FLAG 4112 544 0
FLAG -224 384 0
FLAG 4496 416 0
FLAG 4640 112 VO
SYMBOL Opamps\\opamp 1632 224 M180
SYMATTR InstName U1
SYMBOL cap 1424 128 R90
WINDOW 0 0 32 VBottom 2
WINDOW 3 32 32 VTop 2
SYMATTR InstName C1
SYMATTR Value 5.6n
SYMBOL cap 1296 128 R90
WINDOW 0 0 32 VBottom 2
WINDOW 3 32 32 VTop 2
SYMATTR InstName C2
SYMATTR Value 5.6n
SYMBOL res 1456 192 R0
SYMATTR InstName R1
SYMATTR Value {mc(1.8k,tola)}
SYMBOL res 1696 240 R90
WINDOW 0 0 56 VBottom 2
WINDOW 3 32 56 VTop 2
SYMATTR InstName R3
SYMATTR Value {mc(1.5k,tola)}
SYMBOL res 1600 400 R180
WINDOW 0 36 76 Left 2
WINDOW 3 36 40 Left 2
SYMATTR InstName R4
SYMATTR Value {mc(1k,tola)}
SYMBOL res 1456 64 R270
WINDOW 0 32 56 VTop 2
WINDOW 3 0 56 VBottom 2
SYMATTR InstName R6
SYMATTR Value {mc(1.8k,tola)}
SYMBOL Opamps\\opamp 2496 256 M180
SYMATTR InstName U2
SYMBOL cap 2288 160 R90
WINDOW 0 0 32 VBottom 2
WINDOW 3 32 32 VTop 2
SYMATTR InstName C3
SYMATTR Value 3.3n
SYMBOL cap 2160 160 R90
WINDOW 0 0 32 VBottom 2
WINDOW 3 32 32 VTop 2
SYMATTR InstName C4
SYMATTR Value 3.3n
SYMBOL res 2320 224 R0
SYMATTR InstName R7
SYMATTR Value 2.5k
SYMBOL res 2560 272 R90
WINDOW 0 0 56 VBottom 2
WINDOW 3 32 56 VTop 2
SYMATTR InstName R9
SYMATTR Value {mc(1.4k,tola)}
SYMBOL res 2464 432 R180
WINDOW 0 36 76 Left 2
WINDOW 3 36 40 Left 2
SYMATTR InstName R10
SYMATTR Value {mc(1.2k,tola)}
SYMBOL res 2320 96 R270
WINDOW 0 32 56 VTop 2
WINDOW 3 0 56 VBottom 2
SYMATTR InstName R12
SYMATTR Value 2.5k
SYMBOL Opamps\\opamp 3392 256 M180
SYMATTR InstName U3
SYMBOL cap 3184 160 R90
WINDOW 0 0 32 VBottom 2
WINDOW 3 32 32 VTop 2
SYMATTR InstName C5
SYMATTR Value 3.3n
SYMBOL cap 3056 160 R90
WINDOW 0 0 32 VBottom 2
WINDOW 3 32 32 VTop 2
SYMATTR InstName C6
SYMATTR Value 3.3n
SYMBOL res 3216 224 R0
SYMATTR InstName R8
SYMATTR Value {mc(1.8k,tola)}
SYMBOL res 3456 272 R90
WINDOW 0 0 56 VBottom 2
WINDOW 3 32 56 VTop 2
SYMATTR InstName R11
SYMATTR Value {mc(7.1k,tola)}
SYMBOL res 3360 432 R180
WINDOW 0 36 76 Left 2
WINDOW 3 36 40 Left 2
SYMATTR InstName R13
SYMATTR Value {mc(10k,tola)}
SYMBOL res 3216 96 R270
WINDOW 0 32 56 VTop 2
WINDOW 3 0 56 VBottom 2
SYMATTR InstName R14
SYMATTR Value {mc(1.8k,tola)}
SYMBOL Opamps\\opamp 208 128 R0
SYMATTR InstName U4
SYMBOL cap 112 160 R90
WINDOW 0 0 32 VBottom 2
WINDOW 3 32 32 VTop 2
SYMATTR InstName C7
SYMATTR Value 1n
SYMBOL cap 112 32 R90
WINDOW 0 0 32 VBottom 2
WINDOW 3 32 32 VTop 2
SYMATTR InstName C8
SYMATTR Value 1n
SYMBOL cap -16 160 R90
WINDOW 0 0 32 VBottom 2
WINDOW 3 32 32 VTop 2
SYMATTR InstName C9
SYMATTR Value 1n
SYMBOL res 128 48 R0
SYMATTR InstName R15
SYMATTR Value 440k
SYMBOL res -16 208 R0
SYMATTR InstName R16
SYMATTR Value 350
SYMBOL Opamps\\opamp 832 128 R0
SYMATTR InstName U5
SYMBOL cap 736 160 R90
WINDOW 0 0 32 VBottom 2
WINDOW 3 32 32 VTop 2
SYMATTR InstName C10
SYMATTR Value 1.5n
SYMBOL cap 736 32 R90
WINDOW 0 0 32 VBottom 2
WINDOW 3 32 32 VTop 2
SYMATTR InstName C11
SYMATTR Value 1.5n
SYMBOL cap 608 160 R90
WINDOW 0 0 32 VBottom 2
WINDOW 3 32 32 VTop 2
SYMATTR InstName C12
SYMATTR Value 1.5n
SYMBOL res 752 48 R0
SYMATTR InstName R17
SYMATTR Value 87k
SYMBOL res 608 208 R0
SYMATTR InstName R18
SYMATTR Value 695
SYMBOL Opamps\\opamp 432 112 R0
SYMATTR InstName U6
SYMBOL Opamps\\opamp 1056 112 R0
SYMATTR InstName U7
SYMBOL Opamps\\opamp 2864 112 R0
SYMATTR InstName U8
SYMBOL Opamps\\opamp 1984 112 R0
SYMATTR InstName U9
SYMBOL Opamps\\opamp 4160 336 M180
SYMATTR InstName U10
SYMBOL cap 3952 240 R90
WINDOW 0 0 32 VBottom 2
WINDOW 3 32 32 VTop 2
SYMATTR InstName C13
SYMATTR Value 2.2n
SYMBOL cap 3824 240 R90
WINDOW 0 0 32 VBottom 2
WINDOW 3 32 32 VTop 2
SYMATTR InstName C14
SYMATTR Value 2.2n
SYMBOL res 3984 304 R0
SYMATTR InstName R23
SYMATTR Value {mc(2.1k,tola)}
SYMBOL res 4224 352 R90
WINDOW 0 0 56 VBottom 2
WINDOW 3 32 56 VTop 2
SYMATTR InstName R24
SYMATTR Value {mc(1.1k,tola)}
SYMBOL res 4128 512 R180
WINDOW 0 36 76 Left 2
WINDOW 3 36 40 Left 2
SYMATTR InstName R25
SYMATTR Value {mc(10k,tola)}
SYMBOL res 3984 176 R270
WINDOW 0 32 56 VTop 2
WINDOW 3 0 56 VBottom 2
SYMATTR InstName R26
SYMATTR Value {mc(2.1k,tola)}
SYMBOL Opamps\\opamp 3664 192 R0
SYMATTR InstName U11
SYMBOL Misc\\signal -224 208 R0
WINDOW 123 24 132 Left 2
WINDOW 39 0 0 Left 2
SYMATTR Value2 AC 1
SYMATTR InstName V1
SYMATTR Value ""
SYMBOL Opamps\\opamp 4560 144 R0
SYMATTR InstName U12
SYMBOL res 4464 224 R90
WINDOW 0 0 56 VBottom 2
WINDOW 3 32 56 VTop 2
SYMATTR InstName R2
SYMATTR Value 84k
SYMBOL res 4512 384 R180
WINDOW 0 36 76 Left 2
WINDOW 3 36 40 Left 2
SYMATTR InstName R5
SYMATTR Value 10k
TEXT 1392 -56 Left 2 ;Circuito 3 - Sallen Key Q = 1.96
TEXT 2240 -24 Left 2 ;Circuito 4 - Sallen Key Q = 1.19
TEXT 3136 -24 Left 2 ;Circuito 5 - Sallen Key Q = 0.76
TEXT -16 -24 Left 2 ;Circuito 1 - Deliyannis Q = 11.96
TEXT 608 -24 Left 2 ;Circuito 2 - Deliyannis Q = 3.65
TEXT 24 304 Left 2 ;Preset
TEXT -216 544 Left 2 !.ac dec 1000 13k 30k
TEXT -216 512 Left 2 !.inc opamp.sub
TEXT 3904 56 Left 2 ;Circuito 6 - Sallen Key Q = 0.53
TEXT -208 576 Left 2 !.param tola = 0.01
TEXT 656 312 Left 2 ;Preset
TEXT 216 32 Left 2 ;430K + 10K
