Version 4
SHEET 1 1444 816
WIRE 448 -32 416 -32
WIRE 672 -32 512 -32
WIRE -512 -16 -544 -16
WIRE -448 -16 -512 -16
WIRE -96 0 -144 0
WIRE 128 0 -32 0
WIRE -448 16 -448 -16
WIRE -544 32 -544 -16
WIRE 0 48 -16 48
WIRE 128 48 128 0
WIRE 128 48 80 48
WIRE 544 48 512 48
WIRE 672 48 672 -32
WIRE 672 48 624 48
WIRE -544 112 -544 96
WIRE -448 112 -448 96
WIRE -448 112 -544 112
WIRE -544 128 -544 112
WIRE -336 128 -368 128
WIRE -256 128 -336 128
WIRE -144 128 -144 0
WIRE -144 128 -176 128
WIRE -128 128 -144 128
WIRE -96 128 -128 128
WIRE -16 128 -16 48
WIRE -16 128 -32 128
WIRE 32 128 -16 128
WIRE 128 128 128 48
WIRE 304 128 128 128
WIRE 400 128 384 128
WIRE 416 128 416 -32
WIRE 416 128 400 128
WIRE 432 128 416 128
WIRE 512 128 512 48
WIRE 512 128 496 128
WIRE 560 128 512 128
WIRE -128 144 -128 128
WIRE -128 144 -144 144
WIRE 128 144 128 128
WIRE 128 144 96 144
WIRE 672 144 672 48
WIRE 672 144 624 144
WIRE -496 160 -592 160
WIRE -144 160 -144 144
WIRE 32 160 0 160
WIRE 560 160 528 160
WIRE 128 176 128 144
WIRE 400 176 400 128
WIRE 672 176 672 144
WIRE -592 192 -592 160
WIRE -496 192 -496 160
WIRE -368 208 -368 128
WIRE 0 272 0 160
WIRE 128 272 128 256
WIRE 128 272 0 272
WIRE 528 272 528 160
WIRE 672 272 672 256
WIRE 672 272 528 272
WIRE -592 288 -592 272
WIRE -496 288 -496 256
WIRE -496 288 -592 288
WIRE 128 304 128 272
WIRE 672 304 672 272
WIRE -592 320 -592 288
WIRE -368 336 -368 288
WIRE 352 480 352 464
WIRE 352 480 288 480
WIRE 288 512 288 480
WIRE 352 512 352 480
FLAG -368 336 0
FLAG 400 256 0
FLAG -144 240 0
FLAG 672 384 0
FLAG 128 384 0
FLAG 288 512 0
FLAG 352 384 +12
FLAG 592 112 +12
FLAG 64 112 +12
FLAG 352 592 -12
FLAG 592 176 -12
FLAG 64 176 -12
FLAG 672 -32 Vo
FLAG -544 128 0
FLAG -592 320 0
FLAG -144 0 vb
FLAG -336 128 va
FLAG -512 -16 va
FLAG -592 160 vb
SYMBOL res 400 112 R90
WINDOW 0 0 56 VBottom 2
WINDOW 3 32 56 VTop 2
SYMATTR InstName R1
SYMATTR Value {mc(42k,tolb)}
SYMBOL res 640 32 R90
WINDOW 0 0 56 VBottom 2
WINDOW 3 32 56 VTop 2
SYMATTR InstName R2
SYMATTR Value {mc(12.4k,tola)}
SYMBOL res -160 112 R90
WINDOW 0 0 56 VBottom 2
WINDOW 3 32 56 VTop 2
SYMATTR InstName R3
SYMATTR Value {mc(68k,tolb)}
SYMBOL res 96 32 R90
WINDOW 0 0 56 VBottom 2
WINDOW 3 32 56 VTop 2
SYMATTR InstName R4
SYMATTR Value {mc(20k,tola)}
SYMBOL cap 512 -48 R90
WINDOW 0 0 32 VBottom 2
WINDOW 3 32 32 VTop 2
SYMATTR InstName C1
SYMATTR Value 1n
SYMBOL cap 496 112 R90
WINDOW 0 0 32 VBottom 2
WINDOW 3 32 32 VTop 2
SYMATTR InstName C2
SYMATTR Value 1n
SYMBOL cap -32 112 R90
WINDOW 0 0 32 VBottom 2
WINDOW 3 32 32 VTop 2
SYMATTR InstName C3
SYMATTR Value 680p
SYMBOL cap -32 -16 R90
WINDOW 0 0 32 VBottom 2
WINDOW 3 32 32 VTop 2
SYMATTR InstName C4
SYMATTR Value 680p
SYMBOL Misc\\signal -368 192 R0
WINDOW 123 24 132 Left 2
WINDOW 39 0 0 Left 2
WINDOW 3 24 44 Left 2
SYMATTR Value2 AC 1
SYMATTR Value ""
SYMATTR InstName V1
SYMBOL res 384 160 R0
SYMATTR InstName R7
SYMATTR Value {mc(1.5k,tola)}
SYMBOL res -160 144 R0
SYMATTR InstName R5
SYMATTR Value {mc(2.4k,tola)}
SYMBOL res 656 160 R0
SYMATTR InstName R6
SYMATTR Value 8.2k
SYMBOL res 656 288 R0
SYMATTR InstName R8
SYMATTR Value 1.7k
SYMBOL res 112 160 R0
SYMATTR InstName R9
SYMATTR Value 8.32k
SYMBOL res 112 288 R0
SYMATTR InstName R10
SYMATTR Value 1.58k
SYMBOL Opamps\\opamp2 64 80 R0
SYMATTR InstName U1
SYMATTR Value TL082
SYMBOL Opamps\\opamp2 592 80 R0
SYMATTR InstName U3
SYMATTR Value TL082
SYMBOL voltage 352 368 R0
WINDOW 123 0 0 Left 2
WINDOW 39 0 0 Left 2
SYMATTR InstName V2
SYMATTR Value 12
SYMBOL voltage 352 496 R0
WINDOW 123 0 0 Left 2
WINDOW 39 0 0 Left 2
SYMATTR InstName V3
SYMATTR Value 12
SYMBOL cap -560 32 R0
SYMATTR InstName C5
SYMATTR Value 10p
SYMBOL res -464 0 R0
SYMATTR InstName R11
SYMATTR Value 10Meg
SYMBOL res -608 176 R0
SYMATTR InstName R12
SYMATTR Value 10Meg
SYMBOL cap -512 192 R0
SYMATTR InstName C6
SYMATTR Value 10p
TEXT -464 480 Left 2 !.include TL082.sub
TEXT -464 544 Left 2 !.param tola=0.01
TEXT -464 576 Left 2 !.param tolb=0.05
TEXT -456 512 Left 2 !.ac dec 1000 25k 50k
