Version 4
SHEET 1 2408 784
WIRE 272 -160 224 -160
WIRE 448 -160 352 -160
WIRE 224 -64 224 -160
WIRE 288 -64 224 -64
WIRE 448 -64 448 -160
WIRE 448 -64 352 -64
WIRE 848 -48 656 -48
WIRE 1072 -48 912 -48
WIRE -352 -32 -560 -32
WIRE -144 -32 -288 -32
WIRE -144 64 -144 -32
WIRE 112 64 -144 64
WIRE 224 64 224 -64
WIRE 224 64 192 64
WIRE 304 64 224 64
WIRE 448 64 448 -64
WIRE 544 64 448 64
WIRE 656 64 656 -48
WIRE 656 64 624 64
WIRE 688 64 656 64
WIRE 800 64 768 64
WIRE 944 64 800 64
WIRE -864 80 -960 80
WIRE -672 80 -864 80
WIRE -560 80 -560 -32
WIRE -560 80 -592 80
WIRE -528 80 -560 80
WIRE -400 80 -448 80
WIRE -272 80 -400 80
WIRE 448 80 448 64
WIRE 448 80 368 80
WIRE 1072 80 1072 -48
WIRE 1072 80 1008 80
WIRE -144 96 -144 64
WIRE -144 96 -208 96
WIRE 304 96 272 96
WIRE 944 96 912 96
WIRE -272 112 -304 112
WIRE 800 128 800 64
WIRE 272 144 272 96
WIRE -400 192 -400 80
WIRE 912 192 912 96
WIRE 944 192 912 192
WIRE 1072 192 1072 80
WIRE 1072 192 1024 192
WIRE -960 208 -960 80
WIRE -304 208 -304 112
WIRE -256 208 -304 208
WIRE -144 208 -144 96
WIRE -144 208 -176 208
WIRE 912 240 912 192
WIRE -304 256 -304 208
WIRE -960 352 -960 288
WIRE 800 352 800 192
WIRE 912 352 912 320
WIRE -400 368 -400 256
WIRE -304 368 -304 336
WIRE 528 592 528 576
WIRE 528 592 464 592
WIRE 464 624 464 592
WIRE 528 624 528 592
FLAG -304 368 0
FLAG -400 368 0
FLAG -960 352 0
FLAG 912 352 0
FLAG 800 352 0
FLAG 464 624 0
FLAG 528 496 +12
FLAG -240 128 +12
FLAG 976 112 +12
FLAG 528 704 -12
FLAG -240 64 -12
FLAG 976 48 -12
FLAG 1072 -48 Vo
FLAG -864 80 va
FLAG 336 48 +12
FLAG 336 112 -12
FLAG 272 144 0
SYMBOL res -160 192 R90
WINDOW 0 0 56 VBottom 2
WINDOW 3 32 56 VTop 2
SYMATTR InstName RB2
SYMATTR Value 4.4k
SYMBOL res -320 240 R0
SYMATTR InstName RA2
SYMATTR Value 2.2k
SYMBOL res -432 64 R90
WINDOW 0 0 56 VBottom 2
WINDOW 3 32 56 VTop 2
SYMATTR InstName R2_2
SYMATTR Value 62.4
SYMBOL res -576 64 R90
WINDOW 0 0 56 VBottom 2
WINDOW 3 32 56 VTop 2
SYMATTR InstName R1a_2
SYMATTR Value 62.4
SYMBOL cap -416 192 R0
SYMATTR InstName C2_2
SYMATTR Value 1n
SYMBOL cap -288 -48 R90
WINDOW 0 0 32 VBottom 2
WINDOW 3 32 32 VTop 2
SYMATTR InstName C1_2
SYMATTR Value 1n
SYMBOL Misc\\signal -960 192 R0
WINDOW 123 24 132 Left 2
WINDOW 39 0 0 Left 2
SYMATTR Value2 AC 1
SYMATTR InstName V1
SYMATTR Value ""
SYMBOL res 640 48 R90
WINDOW 0 0 56 VBottom 2
WINDOW 3 32 56 VTop 2
SYMATTR InstName R1a_3
SYMATTR Value 55.7
SYMBOL res 784 48 R90
WINDOW 0 0 56 VBottom 2
WINDOW 3 32 56 VTop 2
SYMATTR InstName R2_3
SYMATTR Value 55.7
SYMBOL cap 784 128 R0
SYMATTR InstName C2_3
SYMATTR Value 1n
SYMBOL res 1040 176 R90
WINDOW 0 0 56 VBottom 2
WINDOW 3 32 56 VTop 2
SYMATTR InstName RB3
SYMATTR Value 4.4k
SYMBOL res 928 336 R180
WINDOW 0 36 76 Left 2
WINDOW 3 36 40 Left 2
SYMATTR InstName RA3
SYMATTR Value 2.2k
SYMBOL cap 912 -64 R90
WINDOW 0 0 32 VBottom 2
WINDOW 3 32 32 VTop 2
SYMATTR InstName C1_3
SYMATTR Value 1n
SYMBOL Opamps\\opamp2 976 144 M180
SYMATTR InstName U5
SYMATTR Value TL082
SYMBOL Opamps\\opamp2 -240 160 M180
SYMATTR InstName U7
SYMATTR Value TL082
SYMBOL voltage 528 608 R0
WINDOW 123 0 0 Left 2
WINDOW 39 0 0 Left 2
SYMATTR InstName V2
SYMATTR Value 12
SYMBOL voltage 528 480 R0
WINDOW 123 0 0 Left 2
WINDOW 39 0 0 Left 2
SYMATTR InstName V3
SYMATTR Value 12
SYMBOL Opamps\\opamp2 336 16 R0
SYMATTR InstName U1
SYMATTR Value TL082
SYMBOL cap 352 -80 R90
WINDOW 0 0 32 VBottom 2
WINDOW 3 32 32 VTop 2
SYMATTR InstName C1
SYMATTR Value 1n
SYMBOL res 368 -176 R90
WINDOW 0 0 56 VBottom 2
WINDOW 3 32 56 VTop 2
SYMATTR InstName R1
SYMATTR Value 51.7
SYMBOL res 208 48 R90
WINDOW 0 0 56 VBottom 2
WINDOW 3 32 56 VTop 2
SYMATTR InstName R2
SYMATTR Value 51.7
TEXT 176 472 Left 2 !.ac dec 100 100 100k
TEXT 168 504 Left 2 !.include TL082.sub
TEXT 192 568 Left 2 !.param tolb = 0.05
TEXT 192 600 Left 2 !.param tola = 0.01
