Version 4
SHEET 1 2408 868
WIRE -1344 -176 -1392 -176
WIRE -1280 -176 -1344 -176
WIRE 80 -160 32 -160
WIRE 256 -160 160 -160
WIRE -1280 -112 -1280 -176
WIRE -1392 -96 -1392 -176
WIRE 32 -64 32 -160
WIRE 96 -64 32 -64
WIRE 256 -64 256 -160
WIRE 256 -64 160 -64
WIRE 720 -32 512 -32
WIRE 928 -32 784 -32
WIRE -400 -16 -592 -16
WIRE -176 -16 -336 -16
WIRE -1392 0 -1392 -32
WIRE -1280 0 -1280 -32
WIRE -1280 0 -1392 0
WIRE -1392 48 -1392 0
WIRE -176 64 -176 -16
WIRE -80 64 -176 64
WIRE 32 64 32 -64
WIRE 32 64 0 64
WIRE 112 64 32 64
WIRE 256 80 256 -64
WIRE 256 80 176 80
WIRE 400 80 256 80
WIRE 512 80 512 -32
WIRE 512 80 480 80
WIRE 544 80 512 80
WIRE 672 80 624 80
WIRE 800 80 672 80
WIRE -768 96 -816 96
WIRE -704 96 -768 96
WIRE -592 96 -592 -16
WIRE -592 96 -624 96
WIRE -560 96 -592 96
WIRE -448 96 -480 96
WIRE -304 96 -448 96
WIRE 112 96 80 96
WIRE 928 96 928 -32
WIRE 928 96 864 96
WIRE -176 112 -176 64
WIRE -176 112 -240 112
WIRE 800 112 768 112
WIRE -304 128 -336 128
WIRE 512 128 512 80
WIRE 80 144 80 96
WIRE -448 160 -448 96
WIRE -816 176 -816 96
WIRE -1312 192 -1392 192
WIRE -1280 192 -1312 192
WIRE 672 192 672 80
WIRE 768 208 768 112
WIRE 816 208 768 208
WIRE 928 208 928 96
WIRE 928 208 896 208
WIRE -1280 224 -1280 192
WIRE -336 224 -336 128
WIRE -304 224 -336 224
WIRE -176 224 -176 112
WIRE -176 224 -224 224
WIRE -1392 240 -1392 192
WIRE 512 256 512 208
WIRE 768 256 768 208
WIRE -336 272 -336 224
WIRE -816 320 -816 256
WIRE -1392 336 -1392 304
WIRE -1280 336 -1280 304
WIRE -1280 336 -1392 336
WIRE 672 368 672 256
WIRE 768 368 768 336
WIRE -1392 384 -1392 336
WIRE -448 384 -448 224
WIRE -336 384 -336 352
WIRE 528 592 528 576
WIRE 528 592 464 592
WIRE 464 624 464 592
WIRE 528 624 528 592
FLAG 768 368 0
FLAG 672 368 0
FLAG -816 320 0
FLAG -336 384 0
FLAG -448 384 0
FLAG 464 624 0
FLAG 528 496 +12
FLAG 832 128 +12
FLAG -272 144 +12
FLAG 528 704 -12
FLAG 832 64 -12
FLAG -272 80 -12
FLAG 144 48 +12
FLAG 144 112 -12
FLAG 80 144 0
FLAG 512 256 0
FLAG 928 -32 vo
FLAG -1392 384 0
FLAG -1392 48 0
FLAG -1344 -176 va
FLAG -768 96 va
FLAG -592 -16 vb
FLAG -1312 192 vb
SYMBOL res 912 192 R90
WINDOW 0 0 56 VBottom 2
WINDOW 3 32 56 VTop 2
SYMATTR InstName RB2
SYMATTR Value {mc(2k,tolb)}
SYMBOL res 752 240 R0
SYMATTR InstName RA2
SYMATTR Value {mc(2.2k,tolb)}
SYMBOL res 640 64 R90
WINDOW 0 0 56 VBottom 2
WINDOW 3 32 56 VTop 2
SYMATTR InstName R2_2
SYMATTR Value {mc(1.5k,tolb)}
SYMBOL res 496 64 R90
WINDOW 0 0 56 VBottom 2
WINDOW 3 32 56 VTop 2
SYMATTR InstName R1a_2
SYMATTR Value {mc(2.2k,tolb)}
SYMBOL cap 656 192 R0
SYMATTR InstName C2_2
SYMATTR Value 100n
SYMBOL cap 784 -48 R90
WINDOW 0 0 32 VBottom 2
WINDOW 3 32 32 VTop 2
SYMATTR InstName C1_2
SYMATTR Value 100n
SYMBOL Misc\\signal -816 160 R0
WINDOW 123 24 132 Left 2
WINDOW 39 0 0 Left 2
SYMATTR Value2 AC 1
SYMATTR InstName V1
SYMATTR Value ""
SYMBOL res -608 80 R90
WINDOW 0 0 56 VBottom 2
WINDOW 3 32 56 VTop 2
SYMATTR InstName R1a_3
SYMATTR Value {mc(172k,tolb)}
SYMBOL res -464 80 R90
WINDOW 0 0 56 VBottom 2
WINDOW 3 32 56 VTop 2
SYMATTR InstName R2_3
SYMATTR Value {mc(172k,tolb)}
SYMBOL cap -464 160 R0
SYMATTR InstName C2_3
SYMATTR Value 1n
SYMBOL res -208 208 R90
WINDOW 0 0 56 VBottom 2
WINDOW 3 32 56 VTop 2
SYMATTR InstName RB3
SYMATTR Value {mc(2.2k,tolb)}
SYMBOL res -320 368 R180
WINDOW 0 36 76 Left 2
WINDOW 3 36 40 Left 2
SYMATTR InstName RA3
SYMATTR Value {mc(10k,tolb)}
SYMBOL cap -336 -32 R90
WINDOW 0 0 32 VBottom 2
WINDOW 3 32 32 VTop 2
SYMATTR InstName C1_3
SYMATTR Value 1n
SYMBOL Opamps\\opamp2 -272 176 M180
SYMATTR InstName U5
SYMATTR Value TL082
SYMBOL Opamps\\opamp2 832 160 M180
SYMATTR InstName U7
SYMATTR Value TL082
SYMBOL voltage 528 608 R0
WINDOW 123 0 0 Left 2
WINDOW 39 0 0 Left 2
SYMATTR InstName V2
SYMATTR Value 12
SYMBOL voltage 528 480 R0
WINDOW 123 0 0 Left 2
WINDOW 39 0 0 Left 2
SYMATTR InstName V3
SYMATTR Value 12
SYMBOL Opamps\\opamp2 144 16 R0
SYMATTR InstName U1
SYMATTR Value TL082
SYMBOL cap 160 -80 R90
WINDOW 0 0 32 VBottom 2
WINDOW 3 32 32 VTop 2
SYMATTR InstName C1
SYMATTR Value 100n
SYMBOL res 176 -176 R90
WINDOW 0 0 56 VBottom 2
WINDOW 3 32 56 VTop 2
SYMATTR InstName R1
SYMATTR Value 1.8k
SYMBOL res 16 48 R90
WINDOW 0 0 56 VBottom 2
WINDOW 3 32 56 VTop 2
SYMATTR InstName R2
SYMATTR Value 2.8k
SYMBOL res 496 112 R0
SYMATTR InstName R3
SYMATTR Value {mc(4.7k,tolb)}
SYMBOL cap -1408 -96 R0
SYMATTR InstName C2
SYMATTR Value 10p
SYMBOL cap -1408 240 R0
SYMATTR InstName C3
SYMATTR Value 10p
SYMBOL res -1296 -128 R0
SYMATTR InstName R4
SYMATTR Value 10Meg
SYMBOL res -1296 208 R0
SYMATTR InstName R5
SYMATTR Value 10Meg
TEXT 176 472 Left 2 !.ac dec 100 100 2600
TEXT 168 504 Left 2 !.include TL082.sub
TEXT 192 568 Left 2 !.param tolb = 0.05
TEXT 192 600 Left 2 !.param tola = 0.01
TEXT -128 144 Left 2 ;2K2 + Preset 1K
TEXT -840 -8 Left 2 ;Con 150 K+ 22K
