Version 4
SHEET 1 880 680
WIRE 160 64 96 64
WIRE 304 64 240 64
WIRE -16 128 -64 128
WIRE 96 128 96 64
WIRE 96 128 48 128
WIRE 144 128 96 128
WIRE 304 144 304 64
WIRE 304 144 208 144
WIRE 336 144 304 144
WIRE 144 160 80 160
WIRE 80 192 80 160
WIRE 480 208 480 160
WIRE 480 224 480 208
FLAG 80 192 0
FLAG -64 208 0
FLAG 176 112 +VCC
FLAG 480 80 +VCC
FLAG 480 304 -VCC
FLAG 176 176 -VCC
FLAG 480 208 0
SYMBOL Opamps\\opamp2 176 80 R0
SYMATTR InstName U1
SYMATTR Value LM833#0
SYMBOL res 256 48 R90
WINDOW 0 0 56 VBottom 2
WINDOW 3 32 56 VTop 2
SYMATTR InstName R1
SYMATTR Value 3.6k
SYMBOL cap 48 112 R90
WINDOW 0 0 32 VBottom 2
WINDOW 3 32 32 VTop 2
SYMATTR InstName C1
SYMATTR Value 100n
SYMBOL voltage 480 64 R0
SYMATTR InstName V1
SYMATTR Value 15
SYMBOL voltage 480 208 R0
SYMATTR InstName V2
SYMATTR Value 15
SYMBOL voltage -64 112 R0
WINDOW 123 24 124 Left 2
WINDOW 39 0 0 Left 2
SYMATTR InstName V3
SYMATTR Value ""
SYMATTR Value2 AC 1
TEXT -64 16 Left 2 !.lib C:\\Users\\Martina\\Documents\\LTspiceXVII\\LM833.lib
TEXT -232 280 Left 2 !.ac dec 100 10 1MEG
