Version 4
SHEET 1 880 680
WIRE 48 160 -80 160
WIRE 96 160 48 160
WIRE 224 160 176 160
WIRE 272 160 224 160
WIRE 400 160 352 160
WIRE -80 176 -80 160
WIRE 224 208 224 160
WIRE -80 288 -80 256
WIRE 224 288 224 272
WIRE 320 288 224 288
WIRE 224 304 224 288
WIRE 320 304 320 288
WIRE 48 400 48 160
WIRE 96 400 48 400
WIRE 224 400 224 384
WIRE 224 400 160 400
WIRE 288 400 224 400
WIRE 400 400 400 160
WIRE 400 400 352 400
FLAG 320 304 0
FLAG -80 288 0
SYMBOL res 192 144 R90
WINDOW 0 0 56 VBottom 2
WINDOW 3 32 56 VTop 2
SYMATTR InstName R1
SYMATTR Value {mc(3k,tola)}
SYMBOL res 368 144 R90
WINDOW 0 0 56 VBottom 2
WINDOW 3 32 56 VTop 2
SYMATTR InstName R2
SYMATTR Value {mc(3k,tola)}
SYMBOL res 240 400 R180
WINDOW 0 36 76 Left 2
WINDOW 3 36 40 Left 2
SYMATTR InstName R3
SYMATTR Value {mc(1.5k,tola)}
SYMBOL cap 208 208 R0
SYMATTR InstName C1
SYMATTR Value {mc(44nf,tolb)}
SYMBOL cap 160 384 R90
WINDOW 0 0 32 VBottom 2
WINDOW 3 32 32 VTop 2
SYMATTR InstName C2
SYMATTR Value {mc(22nf,tolb)}
SYMBOL cap 352 384 R90
WINDOW 0 0 32 VBottom 2
WINDOW 3 32 32 VTop 2
SYMATTR InstName C3
SYMATTR Value {mc(22nf,tolb)}
SYMBOL Misc\\signal -80 160 R0
WINDOW 123 24 132 Left 2
WINDOW 39 0 0 Left 2
SYMATTR InstName V1
SYMATTR Value ""
SYMATTR Value2 AC 1
TEXT 456 208 Left 2 !.param tola=0.05
TEXT 456 240 Left 2 !.param tolb=0.10
TEXT 456 272 Left 2 !.step param run 1 100 1
TEXT 464 312 Left 2 !.ac dec 100 100 100K
