Version 4
SHEET 1 936 696
WIRE 64 80 -160 80
WIRE 208 80 128 80
WIRE 464 80 288 80
WIRE 880 144 880 96
WIRE 880 144 832 144
WIRE 880 176 880 144
WIRE -160 224 -160 80
WIRE -80 224 -160 224
WIRE 96 224 -80 224
WIRE 464 240 464 80
WIRE 464 240 160 240
WIRE 96 256 48 256
WIRE 48 368 48 256
WIRE 144 368 48 368
WIRE 464 368 464 240
WIRE 464 368 224 368
WIRE 48 400 48 368
WIRE 464 448 464 432
WIRE 352 544 96 544
WIRE 464 544 464 512
WIRE 464 544 352 544
WIRE 48 624 48 576
WIRE 352 656 352 624
WIRE 464 656 464 608
FLAG 352 656 0
FLAG 464 656 0
FLAG 48 624 0
FLAG -160 304 0
FLAG -80 288 0
FLAG 832 144 0
FLAG 880 16 +VCC
FLAG 128 272 +VCC
FLAG 880 256 -VCC
FLAG 128 208 -VCC
SYMBOL Opamps\\opamp2 128 304 M180
SYMATTR InstName TL082
SYMBOL cap 128 64 R90
WINDOW 0 0 32 VBottom 2
WINDOW 3 32 32 VTop 2
SYMATTR InstName C1
SYMATTR Value 1n
SYMBOL cap -96 224 R0
SYMATTR InstName C2
SYMATTR Value 1n
SYMBOL cap 448 544 R0
SYMATTR InstName C3
SYMATTR Value 1µ
SYMBOL res 32 384 R0
SYMATTR InstName R1
SYMATTR Value 51k
SYMBOL res 240 352 R90
WINDOW 0 0 56 VBottom 2
WINDOW 3 32 56 VTop 2
SYMATTR InstName R2
SYMATTR Value 20k
SYMBOL res 336 528 R0
SYMATTR InstName R3
SYMATTR Value 1Meg
SYMBOL res -176 208 R0
SYMATTR InstName R4
SYMATTR Value 2053
SYMBOL zener 448 448 R0
WINDOW 3 -27 32 Left 2
SYMATTR InstName D1
SYMBOL diode 480 432 R180
WINDOW 0 24 64 Left 2
WINDOW 3 24 0 Left 2
SYMATTR InstName D2
SYMBOL njf 96 480 M0
SYMATTR InstName J1
SYMBOL res 304 64 R90
WINDOW 0 0 56 VBottom 2
WINDOW 3 32 56 VTop 2
SYMATTR InstName R5
SYMATTR Value 2053
SYMBOL voltage 880 0 R0
SYMATTR InstName V1
SYMATTR Value 15
SYMBOL voltage 880 160 R0
SYMATTR InstName V2
SYMATTR Value 15
TEXT 360 -128 Left 2 !.inc "TL082.301"
