Version 4
SHEET 1 1796 680
WIRE -608 -64 -656 -64
WIRE -496 -64 -528 -64
WIRE -128 32 -320 32
WIRE 96 32 -64 32
WIRE -656 48 -656 -64
WIRE -592 48 -656 48
WIRE -496 48 -496 -64
WIRE -496 48 -528 48
WIRE 784 48 576 48
WIRE 992 48 848 48
WIRE -656 128 -656 48
WIRE -656 128 -704 128
WIRE -592 128 -656 128
WIRE -496 144 -496 48
WIRE -496 144 -528 144
WIRE -432 144 -496 144
WIRE -320 144 -320 32
WIRE -320 144 -352 144
WIRE -288 144 -320 144
WIRE -176 144 -208 144
WIRE -32 144 -176 144
WIRE 96 144 96 32
WIRE 272 144 96 144
WIRE -848 160 -960 160
WIRE -704 160 -704 128
WIRE -704 160 -768 160
WIRE -592 160 -624 160
WIRE 96 160 96 144
WIRE 96 160 32 160
WIRE 368 160 336 160
WIRE 464 160 368 160
WIRE 576 160 576 48
WIRE 576 160 544 160
WIRE 608 160 576 160
WIRE 736 160 688 160
WIRE 864 160 736 160
WIRE -32 176 -64 176
WIRE 272 176 224 176
WIRE 992 176 992 48
WIRE 992 176 928 176
WIRE 864 192 832 192
WIRE -960 208 -960 160
WIRE -320 208 -320 144
WIRE -176 208 -176 144
WIRE -624 224 -624 160
WIRE 224 240 224 176
WIRE 368 240 368 160
WIRE 368 240 224 240
WIRE 576 240 576 160
WIRE -64 272 -64 176
WIRE -32 272 -64 272
WIRE 96 272 96 160
WIRE 96 272 48 272
WIRE 736 272 736 160
WIRE 832 288 832 192
WIRE 880 288 832 288
WIRE 992 288 992 176
WIRE 992 288 960 288
WIRE -64 320 -64 272
WIRE -320 336 -320 288
WIRE 832 336 832 288
WIRE -960 352 -960 288
WIRE 576 368 576 320
WIRE -176 432 -176 272
WIRE -64 432 -64 400
WIRE 736 448 736 336
WIRE 832 448 832 416
FLAG 832 448 0
FLAG 736 448 0
FLAG -960 352 0
FLAG -64 432 0
FLAG -176 432 0
FLAG 992 48 Vo
FLAG -320 336 0
FLAG 576 368 0
FLAG -624 224 0
SYMBOL Opamps\\opamp 896 240 M180
SYMATTR InstName U1
SYMBOL Opamps\\opamp 304 224 M180
SYMATTR InstName U2
SYMBOL res 976 272 R90
WINDOW 0 0 56 VBottom 2
WINDOW 3 32 56 VTop 2
SYMATTR InstName RB2
SYMATTR Value {mc(1.1k,tola)}
SYMBOL res 816 320 R0
SYMATTR InstName RA2
SYMATTR Value {mc(1.2k,tolb)}
SYMBOL res 704 144 R90
WINDOW 0 0 56 VBottom 2
WINDOW 3 32 56 VTop 2
SYMATTR InstName R2_2
SYMATTR Value 3.9k
SYMBOL res 560 144 R90
WINDOW 0 0 56 VBottom 2
WINDOW 3 32 56 VTop 2
SYMATTR InstName R1a_2
SYMATTR Value 22k
SYMBOL cap 720 272 R0
SYMATTR InstName C2_2
SYMATTR Value 2n
SYMBOL cap 848 32 R90
WINDOW 0 0 32 VBottom 2
WINDOW 3 32 32 VTop 2
SYMATTR InstName C1_2
SYMATTR Value 2n
SYMBOL Misc\\signal -960 192 R0
WINDOW 123 24 132 Left 2
WINDOW 39 0 0 Left 2
SYMATTR Value2 AC 1
SYMATTR InstName V1
SYMATTR Value ""
SYMBOL Opamps\\opamp 0 224 M180
SYMATTR InstName U3
SYMBOL res -336 128 R90
WINDOW 0 0 56 VBottom 2
WINDOW 3 32 56 VTop 2
SYMATTR InstName R1a_3
SYMATTR Value 8.2k
SYMBOL res -192 128 R90
WINDOW 0 0 56 VBottom 2
WINDOW 3 32 56 VTop 2
SYMATTR InstName R2_3
SYMATTR Value 5.6k
SYMBOL cap -192 208 R0
SYMATTR InstName C2_3
SYMATTR Value 1n
SYMBOL res 64 256 R90
WINDOW 0 0 56 VBottom 2
WINDOW 3 32 56 VTop 2
SYMATTR InstName RB3
SYMATTR Value {mc(1.56k,tola)}
SYMBOL res -48 416 R180
WINDOW 0 36 76 Left 2
WINDOW 3 36 40 Left 2
SYMATTR InstName RA3
SYMATTR Value {mc(1k,tola)}
SYMBOL cap -64 16 R90
WINDOW 0 0 32 VBottom 2
WINDOW 3 32 32 VTop 2
SYMATTR InstName C1_3
SYMATTR Value 1n
SYMBOL res -752 144 R90
WINDOW 0 0 56 VBottom 2
WINDOW 3 32 56 VTop 2
SYMATTR InstName R1
SYMATTR Value 7k
SYMBOL cap -592 64 R270
WINDOW 0 32 32 VTop 2
WINDOW 3 0 32 VBottom 2
SYMATTR InstName C_H1
SYMATTR Value 1n
SYMBOL Opamps\\opamp -560 80 R0
SYMATTR InstName U4
SYMBOL res -512 -80 R90
WINDOW 0 0 56 VBottom 2
WINDOW 3 32 56 VTop 2
SYMATTR InstName R2
SYMATTR Value 12k
SYMBOL res -336 192 R0
SYMATTR InstName R3
SYMATTR Value 18k
SYMBOL res 560 224 R0
SYMATTR InstName R4
SYMATTR Value 4.7k
TEXT 176 472 Left 2 !.ac dec 100 10k 60k
TEXT 168 504 Left 2 !.include opamp.sub
TEXT 192 568 Left 2 !.param tolb = 0.05
TEXT 192 600 Left 2 !.param tola = 0.01
