Version 4
SHEET 1 880 680
WIRE 32 32 0 32
WIRE 128 32 96 32
WIRE 336 32 128 32
WIRE 128 48 128 32
WIRE -112 160 -224 160
WIRE -16 160 -48 160
WIRE 0 160 0 32
WIRE 0 160 -16 160
WIRE 32 160 0 160
WIRE 128 160 128 128
WIRE 128 160 96 160
WIRE 176 160 128 160
WIRE 336 176 336 32
WIRE 336 176 240 176
WIRE -224 192 -224 160
WIRE 176 192 160 192
WIRE -16 224 -16 160
WIRE 160 304 160 192
WIRE -224 320 -224 272
WIRE -16 336 -16 304
FLAG -16 336 0
FLAG 336 32 VO
FLAG -224 320 0
FLAG 160 304 0
SYMBOL Opamps\\opamp 208 112 R0
SYMATTR InstName U1
SYMBOL cap 96 144 R90
WINDOW 0 0 32 VBottom 2
WINDOW 3 32 32 VTop 2
SYMATTR InstName C1
SYMATTR Value 1n
SYMBOL cap 96 16 R90
WINDOW 0 0 32 VBottom 2
WINDOW 3 32 32 VTop 2
SYMATTR InstName C2
SYMATTR Value 1n
SYMBOL res 112 32 R0
SYMATTR InstName R3
SYMATTR Value {mc(477.5k,tola)}
SYMBOL cap -48 144 R90
WINDOW 0 0 32 VBottom 2
WINDOW 3 32 32 VTop 2
SYMATTR InstName C3
SYMATTR Value 1n
SYMBOL res -32 208 R0
SYMATTR InstName R4
SYMATTR Value {mc(530,tola)}
SYMBOL Misc\\signal -224 176 R0
WINDOW 123 24 132 Left 2
WINDOW 39 0 0 Left 2
SYMATTR Value2 AC 1
SYMATTR InstName V1
SYMATTR Value ""
TEXT -272 -16 Left 2 !.inc opamp.sub
TEXT -272 16 Left 2 !.ac dec 1000 4k 30k
TEXT -272 56 Left 2 !.param tolb = 0.05
TEXT -544 144 Left 2 !.step param run 1 100 1
TEXT -272 80 Left 2 !.param tola = 0.01
